pglib_opf_case179_goc/pglib_opf_case179_goc_3regions.m
% -------------------------------------------------------------------------
% Partitioned MATPOWER Case File
% Copyright (c) 2025 Milad Hasanzadeh
% Generated on: 2025-06-25
% This file contains partitioned data for 3 regions


% -------------------- mpc_regionR1 --------------------

mpc_regionR1.version = '2';
mpc_regionR1.baseMVA = 100.0000;
mpc_regionR1.bus = [
%	bus_i       type        Pd          Qd          Gs          Bs          area        Vm          Va          baseKV      zone        Vmax        Vmin        
	 1	 1	 926.77	-54.77	 0	 0	 1	 1.003	 0	 1	 1	 1.108	 0.898;
	 2	 1	 0	 0	 0	 0	 1	 1.003	 0	 1	 1	 1.108	 0.898;
	 3	 2	 46.71	 0	 0	 0	 1	 1.003	 0	 1	 1	 1.108	 0.898;
	 4	 1	 1271.04	-122.37	 0	 0	 1	 1.003	 0	 1	 1	 1.108	 0.898;
	 5	 2	 48.57	 0	 0	 0	 1	 1.003	 0	 1	 1	 1.108	 0.898;
	 6	 1	 0	 0	 0	-113	 1	 1.003	 0	 1	 1	 1.108	 0.898;
	 7	 1	 113.45	-54.21	 0	-155	 1	 1.003	 0	 1	 1	 1.108	 0.898;
	 8	 2	 50	 0	 0	 0	 1	 1.003	 0	 1	 1	 1.108	 0.898;
	 9	 1	 67.39	 22.91	 0	 0	 1	 1.003	 0	 1	 1	 1.108	 0.898;
	 10	 2	 47.87	 0	 0	 0	 1	 1.003	 0	 1	 1	 1.108	 0.898;
	 11	 1	 459.25	 4.79	 0	 390	 1	 1.003	 0	 1	 1	 1.108	 0.898;
	 12	 2	 51.79	 0	 0	 0	 1	 1.003	 0	 1	 1	 1.108	 0.898;
	 13	 1	 0	 0	 0	 0	 1	 1.003	 0	 1	 1	 1.108	 0.898;
	 14	 1	 0	 0	 0	 0	 1	 1.003	 0	 1	 1	 1.108	 0.898;
	 15	 2	 51.16	 0	 0	 0	 1	 1.003	 0	 1	 1	 1.108	 0.898;
	 16	 1	 1098.25	 902.5	 0	 430	 1	 1.003	 0	 1	 1	 1.108	 0.898;
	 17	 2	 52.83	 0	 0	 0	 1	 1.003	 0	 1	 1	 1.108	 0.898;
	 18	 1	 0	 0	 0	-220	 1	 1.003	 0	 1	 1	 1.108	 0.898;
	 19	 1	 0	 0	 0	-220	 1	 1.003	 0	 1	 1	 1.108	 0.898;
	 20	 1	 307.42	-452.74	 0	-870	 1	 1.003	 0	 1	 1	 1.108	 0.898;
	 21	 1	 0	 0	 0	 0	 1	 1.003	 0	 1	 1	 1.108	 0.898;
	 22	 1	 210.22	 74.94	 0	-60	 1	 1.003	 0	 1	 1	 1.108	 0.898;
	 23	 1	 16.91	 12.04	 0	 0	 1	 1.003	 0	 1	 1	 1.108	 0.898;
	 24	 1	 79.39	-8.29	 0	 0	 1	 1.003	 0	 1	 1	 1.108	 0.898;
	 25	 1	 53.01	 41.07	 0	-220	 1	 1.003	 0	 1	 1	 1.108	 0.898;
	 26	 2	 53.7	 0	 0	 0	 1	 1.003	 0	 1	 1	 1.108	 0.898;
	 27	 1	-29.29	 11.72	 0	 0	 1	 1.003	 0	 1	 1	 1.108	 0.898;
	 28	 1	 137.66	 104.12	 0	 0	 1	 1.003	 0	 1	 1	 1.108	 0.898;
	 29	 2	 47.79	 0	 0	 0	 1	 1.003	 0	 1	 1	 1.108	 0.898;
	 30	 1	 0	 0	 0	 0	 1	 1.003	 0	 1	 1	 1.108	 0.898;
	 31	 1	 15.05	 12.06	 0	-18	 1	 1.003	 0	 1	 1	 1.108	 0.898;
	 32	 1	 73.31	 70	 0	 0	 1	 1.003	 0	 1	 1	 1.108	 0.898;
	 33	 1	 171.78	-39.78	 0	-50	 1	 1.003	 0	 1	 1	 1.108	 0.898;
	 34	 1	 95.68	 75.76	 0	 0	 1	 1.003	 0	 1	 1	 1.108	 0.898;
];

mpc_regionR1.gen = [
%	bus         Pg          Qg          Qmax        Qmin        Vg          mBase       status      Pmax        Pmin        Pc1         Pc2         Qc1min      Qc1max      Qc2min      Qc2max      ramp_agc    ramp_10     ramp_30     ramp_q      apf         
	 3	 994.085	-7.94	 320.28	-336.16	 1.003	 1600	 1	 1683.12	 305.05	 0	 0	 0	 0	 0	 0	 0	 0	 0	 0	 1683.1216;
	 5	 1084.63	-30.87	 378.83	-440.57	 1.003	 2100	 1	 1938.18	 231.08	 0	 0	 0	 0	 0	 0	 0	 0	 0	 0	 1938.1774;
	 8	 2652.8	 141.81	 701.97	-418.35	 1.003	 4300	 1	 4498.26	 807.34	 0	 0	 0	 0	 0	 0	 0	 0	 0	 0	 4498.2554;
	 10	 2402.61	-17.94	 899.03	-934.91	 1.003	 4100	 1	 3956.96	 848.26	 0	 0	 0	 0	 0	 0	 0	 0	 0	 0	 3956.9636;
	 12	 1305.43	 23.19	 319	-272.62	 1.003	 2000	 1	 2074.45	 536.41	 0	 0	 0	 0	 0	 0	 0	 0	 0	 0	 2074.4534;
	 15	 2254.335	 129.4	 652.92	-394.12	 1.003	 3300	 1	 3493.62	 1015.05	 0	 0	 0	 0	 0	 0	 0	 0	 0	 0	 3493.625;
	 17	 2010.625	 89.785	 765.95	-586.38	 1.003	 3600	 1	 3528.4	 492.85	 0	 0	 0	 0	 0	 0	 0	 0	 0	 0	 3528.4009;
	 26	 2214.085	 697.35	 10604.58	-9209.88	 1.003	 3300	 1	 3483.05	 945.12	 0	 0	 0	 0	 0	 0	 0	 0	 0	 0	 3483.0479;
	 29	 501.625	-587.665	 9359.49	-10534.82	 1.003	 900	 1	 839.66	 163.59	 0	 0	 0	 0	 0	 0	 0	 0	 0	 0	 839.6633;
];

mpc_regionR1.branch = [
%	fbus        tbus        r           x           b           rateA       rateB       rateC       ratio       angle       status      angmin      angmax      
	 1	 2	 0	 0.0146	 0	 2196	 2196	 2196	 0	 0	 1	-30	 30;
	 1	 3	 0	 0.0173	 0	 1853	 1853	 1853	 0.9545	 0	 1	-30	 30;
	 2	 7	 0.00179	 0.01988	 2.576	 1606	 1606	 1606	 0	 0	 1	-30	 30;
	 4	 5	 0	 0.01238	 0	 2589	 2589	 2589	 0	 0	 1	-30	 30;
	 4	 10	 0	 0.015	 0	 2137	 2137	 2137	 0	 0	 1	-30	 30;
	 11	 4	 0.00977	 0.11	 2	 291	 291	 291	 0	 0	 1	-30	 30;
	 4	 27	 0.00811	 0.1369	 2.4348	 234	 234	 234	 0	 0	 1	-30	 30;
	 6	 7	 0	 0.011	 0	 2914	 2914	 2914	 1.063	 0	 1	-30	 30;
	 6	 7	 0	 0.011	 0	 2914	 2914	 2914	 1.063	 0	 1	-30	 30;
	 6	 13	 0	 0.00408	 0	 5501.81	 7856	 7856	 0	 0	 1	-30	 30;
	 7	 8	 0	 0.0059	 0	 5432	 5432	 5432	 0	 0	 1	-30	 30;
	 7	 9	 0.00028	 0.0138	 0	 2322	 2322	 2322	 0	 0	 1	-30	 30;
	 7	 9	 0.00029	 0.0139	 0	 2306	 2306	 2306	 0	 0	 1	-30	 30;
	 7	 11	 0.0005	 0.0053	 0.0882	 2202.27	 6021	 6021	 0	 0	 1	-30	 30;
	 30	 7	 0.0048	 0.0436	 0.7078	 731	 731	 731	 0	 0	 1	-30	 30;
	 11	 12	 0	 0.006	 0	 5342	 5342	 5342	 1.0435	 0	 1	-30	 30;
	 13	 14	 0.00177	 0.04189	 3.3446	 765	 765	 765	 0	 0	 1	-30	 30;
	 20	 15	 0	 0.0046	 0	 6968	 6968	 6968	 0	 0	 1	-30	 30;
	 16	 17	 0	 0.0052	 0	 6164	 6164	 6164	 1.025	 0	 1	-30	 30;
	 16	 27	 0.0018	 0.0245	 0.4392	 1305	 1305	 1305	 0	 0	 1	-30	 30;
	 16	 27	 0.0018	 0.0245	 0.4392	 1305	 1305	 1305	 0	 0	 1	-30	 30;
	 18	 21	 0.00264	 0.05356	 5.29066	 598	 598	 598	 0	 0	 1	-30	 30;
	 19	 20	 0	 0.0072	 0	 4452	 4452	 4452	 1.05	 0	 1	-30	 30;
	 21	 19	 0	 0.02667	 0	 1202	 1202	 1202	 0	 0	 1	-30	 30;
	 23	 20	 0.0062	 0.0673	 1.1156	 475	 475	 475	 0	 0	 1	-30	 30;
	 23	 22	 0.0024	 0.0332	 0.5849	 963	 963	 963	 0	 0	 1	-30	 30;
	 22	 25	 0.0052	 0.0602	 1.01	 531	 531	 531	 0	 0	 1	-30	 30;
	 22	 25	 0.0049	 0.0537	 0.8843	 595	 595	 595	 0	 0	 1	-30	 30;
	 22	 27	 0.0017	 0.0225	 0.3992	 1421	 1421	 1421	 0	 0	 1	-30	 30;
	 22	 27	 0.0021	 0.0238	 0.3845	 1342	 1342	 1342	 0	 0	 1	-30	 30;
	 22	 32	 0.0012	 0.0172	 0.2987	 1859	 1859	 1859	 0	 0	 1	-30	 30;
	 22	 34	 0.0008	 0.0106	 0.2039	 2253.37	 3015	 3015	 0	 0	 1	-30	 30;
	 23	 24	 0.0003	 0.0181	 0	 1771	 1771	 1771	 0	 0	 1	-30	 30;
	 23	 34	 0.0016	 0.0226	 0.381	 1415	 1415	 1415	 0	 0	 1	-30	 30;
	 24	 28	 0.0108	 0.0965	 0.3296	 331	 331	 331	 0	 0	 1	-30	 30;
	 25	 26	 0.0002	 0.0058	 0	 5523	 5523	 5523	 0.9855	 0	 1	-30	 30;
	 25	 31	 0.0096	 0.0878	 1.4265	 363	 363	 363	 0	 0	 1	-30	 30;
	 25	 32	 0.0034	 0.0392	 0.6524	 815	 815	 815	 0	 0	 1	-30	 30;
	 25	 33	 0.0034	 0.0374	 0.6208	 854	 854	 854	 0	 0	 1	-30	 30;
	 25	 33	 0.0034	 0.0372	 0.6182	 858	 858	 858	 0	 0	 1	-30	 30;
	 27	 33	 0.0038	 0.034	 0.5824	 937	 937	 937	 0	 0	 1	-30	 30;
	 27	 33	 0.0032	 0.0349	 0.5722	 915	 915	 915	 0	 0	 1	-30	 30;
	 28	 29	 0.0005	 0.0141	 0	 2272	 2272	 2272	 1.0588	 0	 1	-30	 30;
	 31	 30	 0	 0.0195	 0	 1644	 1644	 1644	 0	 0	 1	-30	 30;
];

mpc_regionR1.gencost = [
%	2           startup     shutdown    n           c(n-1)...c0 
	 2	 0	 0	 3	 0	 27.125018	 0;
	 2	 0	 0	 3	 0	 25.767823	 0;
	 2	 0	 0	 3	 0	 33.458506	 0;
	 2	 0	 0	 3	 0	 6.580729	 0;
	 2	 0	 0	 3	 0	 41.899242	 0;
	 2	 0	 0	 3	 0	 23.718395	 0;
	 2	 0	 0	 3	 0	 21.891639	 0;
	 2	 0	 0	 3	 0	 8.614738	 0;
	 2	 0	 0	 3	 0	 49.876052	 0;
];


% -------------------- mpc_regionR2 --------------------

mpc_regionR2.version = '2';
mpc_regionR2.baseMVA = 100.0000;
mpc_regionR2.bus = [
%	bus_i       type        Pd          Qd          Gs          Bs          area        Vm          Va          baseKV      zone        Vmax        Vmin        
	 1	 2	 49.3	 0	 0	 0	 1	 1.003	 0	 1	 1	 1.108	 0.898;
	 2	 1	 2376.39	 1052.35	 0	 0	 1	 1.003	 0	 1	 1	 1.108	 0.898;
	 3	 1	 0	 0	 0	 0	 1	 1.003	 0	 1	 1	 1.108	 0.898;
	 4	 1	 0	 0	 0	 0	 1	 1.003	 0	 1	 1	 1.108	 0.898;
	 5	 1	 1692.19	 703.18	 0	 0	 1	 1.003	 0	 1	 1	 1.108	 0.898;
	 6	 2	 45.09	 0	 0	 0	 1	 1.003	 0	 1	 1	 1.108	 0.898;
	 7	 2	 46.97	 0	 0	 0	 1	 1.003	 0	 1	 1	 1.108	 0.898;
	 8	 1	 774.37	 298.97	 0	 0	 1	 1.003	 0	 1	 1	 1.108	 0.898;
	 9	 1	 78.5	 31.52	 0	 0	 1	 1.003	 0	 1	 1	 1.108	 0.898;
	 10	 1	-35.37	 174.17	 0	 576.85	 1	 1.003	 0	 1	 1	 1.108	 0.898;
	 11	 1	-23.29	 20.73	 0	 0	 1	 1.003	 0	 1	 1	 1.108	 0.898;
	 12	 2	 51.91	 0	 0	 0	 1	 1.003	 0	 1	 1	 1.108	 0.898;
	 13	 1	 1486.08	 1816.85	 0	 792	 1	 1.003	 0	 1	 1	 1.108	 0.898;
	 14	 1	 0	 0	 0	 462	 1	 1.003	 0	 1	 1	 1.108	 0.898;
	 15	 1	-781.91	-53.83	 0	 0	 1	 1.003	 0	 1	 1	 1.108	 0.898;
	 16	 1	 0	 0	 0	 0	 1	 1.003	 0	 1	 1	 1.108	 0.898;
	 17	 1	 1223.08	 413.7	 0	 0	 1	 1.003	 0	 1	 1	 1.108	 0.898;
	 18	 1	 1617.77	 1164.73	 0	 1019.35	 1	 1.003	 0	 1	 1	 1.108	 0.898;
	 19	 3	 54.24	 0	 0	 0	 1	 1.003	 0	 1	 1	 1.108	 0.898;
	 20	 1	 1780.83	 538.1	 0	 550	 1	 1.003	 0	 1	 1	 1.108	 0.898;
	 21	 2	 53.91	 0	 0	 0	 1	 1.003	 0	 1	 1	 1.108	 0.898;
	 22	 1	 2289.75	 396.38	 0	 1200	 1	 1.003	 0	 1	 1	 1.108	 0.898;
	 23	 1	-30.36	-92.62	 0	-674	 1	 1.003	 0	 1	 1	 1.108	 0.898;
	 24	 1	-185.65	-127.12	 0	-110	 1	 1.003	 0	 1	 1	 1.108	 0.898;
	 25	 1	 0	 0	 0	 0	 1	 1.003	 0	 1	 1	 1.108	 0.898;
	 26	 1	 0	 0	 0	 0	 1	 1.003	 0	 1	 1	 1.108	 0.898;
	 27	 1	 0	 0	 0	 0	 1	 1.003	 0	 1	 1	 1.108	 0.898;
	 28	 1	 0	 0	 0	 0	 1	 1.003	 0	 1	 1	 1.108	 0.898;
	 29	 1	 0	 0	 0	 0	 1	 1.003	 0	 1	 1	 1.108	 0.898;
	 30	 1	 0	 0	 0	 0	 1	 1.003	 0	 1	 1	 1.108	 0.898;
	 31	 1	 0	 0	 0	 0	 1	 1.003	 0	 1	 1	 1.108	 0.898;
	 32	 1	 0	 0	 0	 0	 1	 1.003	 0	 1	 1	 1.108	 0.898;
	 33	 1	 0	 0	 0	 0	 1	 1.003	 0	 1	 1	 1.108	 0.898;
	 34	 1	 0	 0	 0	 0	 1	 1.003	 0	 1	 1	 1.108	 0.898;
	 35	 1	 0	 0	 0	 0	 1	 1.003	 0	 1	 1	 1.108	 0.898;
	 36	 1	 0	 0	 0	 0	 1	 1.003	 0	 1	 1	 1.108	 0.898;
	 37	 1	 0	 0	 0	 0	 1	 1.003	 0	 1	 1	 1.108	 0.898;
	 38	 1	-19.81	 21.24	 0	 0	 3	 1.003	 0	 1	 1	 1.108	 0.898;
	 39	 1	 107.66	-82.5	 0	 0	 3	 1.003	 0	 1	 1	 1.108	 0.898;
	 40	 1	 14.28	-0.11	 0	 0	 3	 1.003	 0	 1	 1	 1.108	 0.898;
	 41	 1	 3.78	 0	 0	 0	 3	 1.003	 0	 1	 1	 1.108	 0.898;
	 42	 1	-99.3	 63.54	 0	 0	 3	 1.003	 0	 1	 1	 1.108	 0.898;
	 43	 2	 54.11	 0	 0	 0	 3	 1.003	 0	 1	 1	 1.108	 0.898;
	 44	 1	 75.99	 0	 0	-128	 3	 1.003	 0	 1	 1	 1.108	 0.898;
	 45	 1	 0	 0	 0	-91	 3	 1.003	 0	 1	 1	 1.108	 0.898;
	 46	 1	-0.38	 115.26	 0	-91	 3	 1.003	 0	 1	 1	 1.108	 0.898;
	 47	 2	 51.07	 0	 0	 0	 3	 1.003	 0	 1	 1	 1.108	 0.898;
	 48	 1	 438.16	 54.83	 0	-32	 3	 1.003	 0	 1	 1	 1.108	 0.898;
	 49	 2	 54.76	 0	 0	 0	 3	 1.003	 0	 1	 1	 1.108	 0.898;
	 50	 1	 2650.16	 3818.43	 0	 1500	 3	 1.003	 0	 1	 1	 1.108	 0.898;
	 51	 1	 0	 0	 0	 0	 3	 1.003	 0	 1	 1	 1.108	 0.898;
	 52	 1	 0	 0	 0	 0	 3	 1.003	 0	 1	 1	 1.108	 0.898;
	 53	 1	 0	 0	 0	 0	 3	 1.003	 0	 1	 1	 1.108	 0.898;
	 54	 1	 0	 0	 0	 0	 3	 1.003	 0	 1	 1	 1.108	 0.898;
	 55	 1	 0	 0	 0	 0	 3	 1.003	 0	 1	 1	 1.108	 0.898;
	 56	 1	 0	 0	 0	 0	 3	 1.003	 0	 1	 1	 1.108	 0.898;
	 57	 1	 0	 0	 0	 0	 3	 1.003	 0	 1	 1	 1.108	 0.898;
	 58	 1	 0	 0	 0	 0	 3	 1.003	 0	 1	 1	 1.108	 0.898;
	 59	 1	 0	 0	 0	 0	 3	 1.003	 0	 1	 1	 1.108	 0.898;
	 60	 1	 0	 0	 0	 0	 3	 1.003	 0	 1	 1	 1.108	 0.898;
	 61	 1	 0	 0	 0	 0	 3	 1.003	 0	 1	 1	 1.108	 0.898;
	 62	 1	 0	 0	 0	 0	 3	 1.003	 0	 1	 1	 1.108	 0.898;
	 63	 1	 0	 0	 0	 0	 3	 1.003	 0	 1	 1	 1.108	 0.898;
	 64	 1	 0	 0	 0	 0	 3	 1.003	 0	 1	 1	 1.108	 0.898;
	 65	 1	 0	 0	 0	 0	 3	 1.003	 0	 1	 1	 1.108	 0.898;
	 66	 1	 0	 0	 0	 0	 3	 1.003	 0	 1	 1	 1.108	 0.898;
	 67	 1	 0	 0	 0	 0	 3	 1.003	 0	 1	 1	 1.108	 0.898;
	 68	 1	 0	 0	 0	 0	 3	 1.003	 0	 1	 1	 1.108	 0.898;
	 69	 1	 0	 0	 0	-220	 1	 1.003	 0	 1	 1	 1.108	 0.898;
];

mpc_regionR2.gen = [
%	bus         Pg          Qg          Qmax        Qmin        Vg          mBase       status      Pmax        Pmin        Pc1         Pc2         Qc1min      Qc1max      Qc2min      Qc2max      ramp_agc    ramp_10     ramp_30     ramp_q      apf         
	 1	 6392.915	 11.185	 4070.83	-4048.46	 1.003	 8900	 1	 9757.06	 3028.77	 0	 0	 0	 0	 0	 0	 0	 0	 0	 0	 9757.0576;
	 6	 5083.72	 1136.34	 5544.98	-3272.3	 1.003	 9000	 1	 8718.16	 1449.28	 0	 0	 0	 0	 0	 0	 0	 0	 0	 0	 8718.1563;
	 7	 2932.815	 353.385	 1553.56	-846.79	 1.003	 5800	 1	 5459.92	 405.71	 0	 0	 0	 0	 0	 0	 0	 0	 0	 0	 5459.918;
	 12	 1239.795	-79.99	 642.85	-802.83	 1.003	 2600	 1	 2377.38	 102.21	 0	 0	 0	 0	 0	 0	 0	 0	 0	 0	 2377.3799;
	 19	 7403.065	 135.05	 2448.15	-2178.05	 1.003	 10400	 1	 11165.05	 3641.08	 0	 0	 0	 0	 0	 0	 0	 0	 0	 0	 11165.0508;
	 21	 10354.215	 2358.21	 6030.37	-1313.95	 1.003	 20000	 1	 18208.22	 2500.21	 0	 0	 0	 0	 0	 0	 0	 0	 0	 0	 18208.2246;
	 43	 1328.115	-16.82	 421.05	-454.69	 1.003	 2100	 1	 2247.11	 409.12	 0	 0	 0	 0	 0	 0	 0	 0	 0	 0	 2247.1069;
	 47	 805.425	-7.445	 275.09	-289.98	 1.003	 1200	 1	 1298.69	 312.16	 0	 0	 0	 0	 0	 0	 0	 0	 0	 0	 1298.6926;
	 49	 4482.46	 1027.675	 2735.8	-680.45	 1.003	 6900	 1	 7386.77	 1578.15	 0	 0	 0	 0	 0	 0	 0	 0	 0	 0	 7386.77;
];

mpc_regionR2.branch = [
%	fbus        tbus        r           x           b           rateA       rateB       rateC       ratio       angle       status      angmin      angmax      
	 2	 1	 0	 0.0015	 0	 21366	 21366	 21366	 1.05	 0	 1	-30	 30;
	 2	 3	 0.0035	 0.07	 4.606	 458	 458	 458	 0	 0	 1	-30	 30;
	 2	 22	 0.00083	 0.0239	 3.3	 1341	 1341	 1341	 0	 0	 1	-30	 30;
	 3	 4	 0	 0.01	 0	 3205	 3205	 3205	 1.1	 0	 1	-30	 30;
	 4	 5	 0.002	 0.02	 0.8	 855.66	 1595	 1595	 0	 0	 1	-30	 30;
	 5	 6	 0	 0.002	 0	 16025	 16025	 16025	 0	 0	 1	-30	 30;
	 8	 7	 0	 0.005	 0	 6410	 6410	 6410	 1.09	 0	 1	-30	 30;
	 20	 8	 0.0007	 0.074	 4.87	 434	 434	 434	 0	 0	 1	-30	 30;
	 10	 9	 0.00089	 0.0299	 0	 1072	 1072	 1072	 0.9873	 0	 1	-30	 30;
	 11	 10	 0.0002	 0.01181	 0	 2714	 2714	 2714	 1.0238	 0	 1	-30	 30;
	 11	 10	 9e-05	 0.00735	 0	 4361	 4361	 4361	 1.0238	 0	 1	-30	 30;
	 10	 12	 0	 0.01034	 0	 3100	 3100	 3100	 1.0455	 0	 1	-30	 30;
	 10	 13	 6e-05	 0.00131	 0.00378	 828.29	 24439	 24439	 0	 0	 1	-30	 30;
	 10	 13	 6e-05	 0.00116	 0.00332	 776.56	 27592	 27592	 0	 0	 1	-30	 30;
	 11	 14	 1e-05	 0.0003	 0.01434	 5711.04	 106769	 106769	 0	 0	 1	-30	 30;
	 11	 14	 1e-05	 0.0003	 0.01844	 5829.8	 106769	 106769	 0	 0	 1	-30	 30;
	 11	 18	 0.00023	 0.00451	 0.3332	 5923.31	 7097	 7097	 0	 0	 1	-30	 30;
	 11	 18	 0.0002	 0.00446	 0.305	 6169.99	 7179	 7179	 0	 0	 1	-30	 30;
	 14	 13	 0	 0.00221	 0	 14502	 14502	 14502	 1.0234	 0	 1	-30	 30;
	 17	 15	 0.00179	 0.01405	 3.68	 2263	 2263	 2263	 0	 0	 1	-30	 30;
	 20	 16	 0.00113	 0.02069	 1.85526	 1547	 1547	 1547	 0	 0	 1	-30	 30;
	 17	 18	 0.00196	 0.03304	 1.88	 969	 969	 969	 0	 0	 1	-30	 30;
	 17	 20	 0.00142	 0.02258	 1.88	 1417	 1417	 1417	 0	 0	 1	-30	 30;
	 18	 19	 0	 0.00375	 0	 8547	 8547	 8547	 1.0977	 0	 1	-30	 30;
	 20	 18	 0.0012	 0.02316	 1.7152	 1382	 1382	 1382	 0	 0	 1	-30	 30;
	 20	 18	 0.0003	 0.02	 3.6	 1603	 1603	 1603	 0	 0	 1	-30	 30;
	 23	 18	 0.00063	 0.01412	 1.09756	 2268	 2268	 2268	 0	 0	 1	-30	 30;
	 23	 18	 0.00109	 0.02408	 1.55542	 1330	 1330	 1330	 0	 0	 1	-30	 30;
	 23	 18	 0.00108	 0.02409	 1.55348	 1330	 1330	 1330	 0	 0	 1	-30	 30;
	 22	 20	 0.0002	 0.0082	 1.3	 3908	 3908	 3908	 0	 0	 1	-30	 30;
	 22	 20	 0.0002	 0.0082	 1.3	 3908	 3908	 3908	 0	 0	 1	-30	 30;
	 22	 21	 0	 0.0025	 0	 12820	 12820	 12820	 1.066	 0	 1	-30	 30;
	 23	 26	 0.00041	 0.00737	 0.72694	 4342	 4342	 4342	 0	 0	 1	-30	 30;
	 23	 30	 0.00066	 0.01266	 0.95976	 2529	 2529	 2529	 0	 0	 1	-30	 30;
	 23	 34	 0.00066	 0.01266	 0.95976	 2529	 2529	 2529	 0	 0	 1	-30	 30;
	 24	 28	 0.00072	 0.01382	 1.27572	 2316	 2316	 2316	 0	 0	 1	-30	 30;
	 33	 24	 0.00078	 0.01502	 1.1381	 2131	 2131	 2131	 0	 0	 1	-30	 30;
	 37	 24	 0.00074	 0.01413	 1.06634	 2266	 2266	 2266	 0	 0	 1	-30	 30;
	 24	 63	 0	 0.0072	 0	 4452	 4452	 4452	 0	 0	 1	-30	 30;
	 24	 65	 0	 0.00864	 0	 3710	 3710	 3710	 0	 0	 1	-30	 30;
	 24	 67	 0	 0.01	 0	 3205	 3205	 3205	 0	 0	 1	-30	 30;
	 27	 25	 0.0006	 0.01036	 1.01456	 3089	 3089	 3089	 0	 0	 1	-30	 30;
	 29	 25	 0.00012	 0.00238	 0.21926	 5500.98	 13449	 13449	 0	 0	 1	-30	 30;
	 69	 25	 0.00122	 0.02373	 2.2071	 1349	 1349	 1349	 0	 0	 1	-30	 30;
	 26	 27	 0	 0.01263	 0	 2538	 2538	 2538	 0	 0	 1	-30	 30;
	 28	 29	 0	 0.00858	 0	 3736	 3736	 3736	 0	 0	 1	-30	 30;
	 30	 31	 0	 0.01263	 0	 2538	 2538	 2538	 0	 0	 1	-30	 30;
	 31	 32	 0.00074	 0.01428	 1.0822	 2242	 2242	 2242	 0	 0	 1	-30	 30;
	 32	 33	 0	 0.01263	 0	 2538	 2538	 2538	 0	 0	 1	-30	 30;
	 34	 35	 0	 0.01263	 0	 2538	 2538	 2538	 0	 0	 1	-30	 30;
	 35	 36	 0.00074	 0.01428	 1.0822	 2242	 2242	 2242	 0	 0	 1	-30	 30;
	 36	 37	 0	 0.01263	 0	 2538	 2538	 2538	 0	 0	 1	-30	 30;
	 39	 38	 0.02482	 0.16938	 0.20232	 188	 188	 188	 0	 0	 1	-30	 30;
	 38	 48	 0.0148	 0.10101	 0.12066	 314	 314	 314	 0	 0	 1	-30	 30;
	 39	 40	 0.01382	 0.09268	 0.1106	 343	 343	 343	 0	 0	 1	-30	 30;
	 39	 41	 0.01668	 0.11381	 0.13608	 279	 279	 279	 0	 0	 1	-30	 30;
	 39	 44	 0.01113	 0.06678	 0.07286	 474	 474	 474	 0	 0	 1	-30	 30;
	 39	 44	 0.0105	 0.0654	 0.0686	 484	 484	 484	 0	 0	 1	-30	 30;
	 39	 44	 0.01105	 0.06642	 0.0716	 476	 476	 476	 0	 0	 1	-30	 30;
	 39	 48	 0.03903	 0.27403	 0.31072	 116	 116	 116	 0	 0	 1	-30	 30;
	 40	 48	 0.03058	 0.2046	 0.24472	 155	 155	 155	 0	 0	 1	-30	 30;
	 41	 48	 0.02235	 0.16106	 0.18342	 198	 198	 198	 0	 0	 1	-30	 30;
	 42	 51	 0	 0.01	 0	 3205	 3205	 3205	 0	 0	 1	-30	 30;
	 68	 42	 0	 0.01	 0	 3205	 3205	 3205	 0	 0	 1	-30	 30;
	 43	 44	 0	 0.02281	 0	 1406	 1406	 1406	 0.9174	 0	 1	-30	 30;
	 44	 45	 0.0001	 0.0174	 0	 1842	 1842	 1842	 1.119	 0	 1	-30	 30;
	 45	 55	 2e-05	 0.00998	 0	 3212	 3212	 3212	 0	 0	 1	-30	 30;
	 45	 57	 2e-05	 0.00998	 0	 3212	 3212	 3212	 0	 0	 1	-30	 30;
	 64	 45	 0	 0.0072	 0	 4452	 4452	 4452	 0	 0	 1	-30	 30;
	 66	 45	 0	 0.0072	 0	 4452	 4452	 4452	 0	 0	 1	-30	 30;
	 56	 46	 1e-05	 0.00666	 0	 4813	 4813	 4813	 0	 0	 1	-30	 30;
	 58	 46	 1e-05	 0.00666	 0	 4813	 4813	 4813	 0	 0	 1	-30	 30;
	 46	 59	 1e-05	 0.0112	 0	 2862	 2862	 2862	 0	 0	 1	-30	 30;
	 46	 61	 1e-05	 0.0072	 0	 4452	 4452	 4452	 0	 0	 1	-30	 30;
	 47	 48	 0	 0.01815	 0	 1766	 1766	 1766	 0.9091	 0	 1	-30	 30;
	 48	 50	 0.0002	 0.0125	 0	 2564	 2564	 2564	 1.119	 0	 1	-30	 30;
	 49	 50	 0	 0.00448	 0	 7154	 7154	 7154	 0.9452	 0	 1	-30	 30;
	 54	 50	 0	 0.01	 0	 3205	 3205	 3205	 0	 0	 1	-30	 30;
	 60	 50	 1e-05	 0.0112	 0	 2862	 2862	 2862	 0	 0	 1	-30	 30;
	 62	 50	 1e-05	 0.0036	 0	 5209.14	 8903	 8903	 0	 0	 1	-30	 30;
	 51	 52	 0.00076	 0.01952	 1.8245	 1641	 1641	 1641	 0	 0	 1	-30	 30;
	 52	 53	 0	 0.01	 0	 3205	 3205	 3205	 0	 0	 1	-30	 30;
	 53	 54	 0.00082	 0.02119	 1.9842	 1512	 1512	 1512	 0	 0	 1	-30	 30;
	 55	 56	 0.0014	 0.02338	 1.475	 1369	 1369	 1369	 0	 0	 1	-30	 30;
	 57	 58	 0.0014	 0.02338	 1.475	 1369	 1369	 1369	 0	 0	 1	-30	 30;
	 59	 60	 0.00154	 0.03409	 2.3114	 940	 940	 940	 0	 0	 1	-30	 30;
	 61	 62	 0.00095	 0.02102	 1.4252	 1524	 1524	 1524	 0	 0	 1	-30	 30;
	 63	 64	 0.00103	 0.02338	 1.5804	 1370	 1370	 1370	 0	 0	 1	-30	 30;
	 65	 66	 0.00107	 0.0247	 1.527	 1297	 1297	 1297	 0	 0	 1	-30	 30;
	 67	 68	 0.00103	 0.0323	 2.796	 992	 992	 992	 0	 0	 1	-30	 30;
];

mpc_regionR2.gencost = [
%	2           startup     shutdown    n           c(n-1)...c0 
	 2	 0	 0	 3	 0	 26.88751	 0;
	 2	 0	 0	 3	 0	 26.647901	 0;
	 2	 0	 0	 3	 0	 8.035714	 0;
	 2	 0	 0	 3	 0	 33.91213	 0;
	 2	 0	 0	 3	 0	 25.457586	 0;
	 2	 0	 0	 3	 0	 7.168126	 0;
	 2	 0	 0	 3	 0	 19.203903	 0;
	 2	 0	 0	 3	 0	 30.820178	 0;
	 2	 0	 0	 3	 0	 124.67254	 0;
];


% -------------------- mpc_regionR3 --------------------

mpc_regionR3.version = '2';
mpc_regionR3.baseMVA = 100.0000;
mpc_regionR3.bus = [
%	bus_i       type        Pd          Qd          Gs          Bs          area        Vm          Va          baseKV      zone        Vmax        Vmin        
	 1	 1	 41.43	 65.76	 0	-190	 2	 1.003	 0	 1	 1	 1.108	 0.898;
	 2	 2	 48.55	 0	 0	 0	 2	 1.003	 0	 1	 1	 1.108	 0.898;
	 3	 1	 0	 0	 0	-391	 2	 1.003	 0	 1	 1	 1.108	 0.898;
	 4	 2	 46.55	 0	 0	 0	 2	 1.003	 0	 1	 1	 1.108	 0.898;
	 5	 1	 434.68	 215.2	 0	-146	 2	 1.003	 0	 1	 1	 1.108	 0.898;
	 6	 1	 327.45	-64.08	 0	-427	 2	 1.003	 0	 1	 1	 1.108	 0.898;
	 7	 1	 0	 0	 0	 0	 2	 1.003	 0	 1	 1	 1.108	 0.898;
	 8	 1	 0	 0	 0	 0	 2	 1.003	 0	 1	 1	 1.108	 0.898;
	 9	 1	 0	 0	 0	 0	 2	 1.003	 0	 1	 1	 1.108	 0.898;
	 10	 1	 0	 0	 0	 0	 2	 1.003	 0	 1	 1	 1.108	 0.898;
	 11	 1	 0	 0	 0	 0	 2	 1.003	 0	 1	 1	 1.108	 0.898;
	 12	 1	 0	 0	 0	 0	 2	 1.003	 0	 1	 1	 1.108	 0.898;
	 13	 1	 0	 0	 0	 0	 2	 1.003	 0	 1	 1	 1.108	 0.898;
	 14	 1	 0	 0	 0	 0	 2	 1.003	 0	 1	 1	 1.108	 0.898;
	 15	 1	-843.68	 1045.02	 0	 912	 2	 1.003	 0	 1	 1	 1.108	 0.898;
	 16	 1	 0	 0	 0	 0	 2	 1.003	 0	 1	 1	 1.108	 0.898;
	 17	 1	 0	 0	 0	 0	 2	 1.003	 0	 1	 1	 1.108	 0.898;
	 18	 2	 51.45	 0	 0	 0	 2	 1.003	 0	 1	 1	 1.108	 0.898;
	 19	 1	 69.79	 28	 0	 0	 2	 1.003	 0	 1	 1	 1.108	 0.898;
	 20	 1	 0	 0	 0	 0	 2	 1.003	 0	 1	 1	 1.108	 0.898;
	 21	 2	 49.01	 0	 0	 0	 2	 1.003	 0	 1	 1	 1.108	 0.898;
	 22	 1	-35.89	-17.32	 0	 0	 2	 1.003	 0	 1	 1	 1.108	 0.898;
	 23	 2	 53.25	 0	 0	 0	 2	 1.003	 0	 1	 1	 1.108	 0.898;
	 24	 1	 55.04	 24.01	 0	 0	 2	 1.003	 0	 1	 1	 1.108	 0.898;
	 25	 1	 0	 0	 0	-80	 2	 1.003	 0	 1	 1	 1.108	 0.898;
	 26	 1	 172.41	 62.09	 0	 0	 2	 1.003	 0	 1	 1	 1.108	 0.898;
	 27	 1	 115.98	-58.77	 0	 0	 2	 1.003	 0	 1	 1	 1.108	 0.898;
	 28	 1	 0	 0	 0	 0	 2	 1.003	 0	 1	 1	 1.108	 0.898;
	 29	 1	 0	 0	 0	 0	 2	 1.003	 0	 1	 1	 1.108	 0.898;
	 30	 1	 74.1	 29.03	 0	 0	 2	 1.003	 0	 1	 1	 1.108	 0.898;
	 31	 1	 427.39	 126.16	 0	 0	 2	 1.003	 0	 1	 1	 1.108	 0.898;
	 32	 1	 0	 0	 0	 0	 2	 1.003	 0	 1	 1	 1.108	 0.898;
	 33	 1	 62.17	 24.03	 0	 0	 2	 1.003	 0	 1	 1	 1.108	 0.898;
	 34	 1	 59.47	 25.47	 0	 0	 2	 1.003	 0	 1	 1	 1.108	 0.898;
	 35	 1	 480.82	-6.57	 0	 0	 2	 1.003	 0	 1	 1	 1.108	 0.898;
	 36	 1	-1459.73	 1687.42	 0	 2146	 2	 1.003	 0	 1	 1	 1.108	 0.898;
	 37	 1	 185.63	 75.27	 0	 0	 2	 1.003	 0	 1	 1	 1.108	 0.898;
	 38	 1	 96.01	 18.56	 0	 0	 2	 1.003	 0	 1	 1	 1.108	 0.898;
	 39	 1	-69.23	 30.32	 0	-108	 2	 1.003	 0	 1	 1	 1.108	 0.898;
	 40	 1	 0	 0	 0	 0	 2	 1.003	 0	 1	 1	 1.108	 0.898;
	 41	 1	 23.75	 26.25	 0	 0	 2	 1.003	 0	 1	 1	 1.108	 0.898;
	 42	 2	 54.62	 0	 0	 0	 2	 1.003	 0	 1	 1	 1.108	 0.898;
	 43	 1	 167.6	-8.03	 0	-91	 2	 1.003	 0	 1	 1	 1.108	 0.898;
	 44	 1	 131.26	 13.82	 0	 0	 2	 1.003	 0	 1	 1	 1.108	 0.898;
	 45	 1	 28.61	-310.03	 0	-327	 2	 1.003	 0	 1	 1	 1.108	 0.898;
	 46	 1	 427.13	 35.78	 0	-130	 2	 1.003	 0	 1	 1	 1.108	 0.898;
	 47	 1	 19.35	 21.06	 0	 0	 2	 1.003	 0	 1	 1	 1.108	 0.898;
	 48	 1	 0	 0	 0	 0	 2	 1.003	 0	 1	 1	 1.108	 0.898;
	 49	 1	 0	 0	 0	 0	 2	 1.003	 0	 1	 1	 1.108	 0.898;
	 50	 1	 0	 0	 0	 0	 2	 1.003	 0	 1	 1	 1.108	 0.898;
	 51	 1	 0	 0	 0	 0	 2	 1.003	 0	 1	 1	 1.108	 0.898;
	 52	 1	 414.72	 17.91	 0	 0	 2	 1.003	 0	 1	 1	 1.108	 0.898;
	 53	 1	 95.26	 17.51	 0	 0	 2	 1.003	 0	 1	 1	 1.108	 0.898;
	 54	 2	 46.32	 0	 0	 0	 2	 1.003	 0	 1	 1	 1.108	 0.898;
	 55	 1	 471.17	-10.81	 0	-319	 2	 1.003	 0	 1	 1	 1.108	 0.898;
	 56	 2	 48.52	 0	 0	 0	 2	 1.003	 0	 1	 1	 1.108	 0.898;
	 57	 1	 1730.28	 609.69	 0	 0	 2	 1.003	 0	 1	 1	 1.108	 0.898;
	 58	 1	 107.93	-26.18	 0	 0	 2	 1.003	 0	 1	 1	 1.108	 0.898;
	 59	 1	 174.36	 60.86	 0	 0	 2	 1.003	 0	 1	 1	 1.108	 0.898;
	 60	 2	 45.88	 0	 0	 0	 2	 1.003	 0	 1	 1	 1.108	 0.898;
	 61	 1	 1540.95	 1238.88	 0	 400	 2	 1.003	 0	 1	 1	 1.108	 0.898;
	 62	 1	 0	 0	 0	 0	 2	 1.003	 0	 1	 1	 1.108	 0.898;
	 63	 1	 0	 0	 0	-196	 2	 1.003	 0	 1	 1	 1.108	 0.898;
	 64	 2	 53.68	 0	 0	 0	 2	 1.003	 0	 1	 1	 1.108	 0.898;
	 65	 2	 49.94	 0	 0	 0	 2	 1.003	 0	 1	 1	 1.108	 0.898;
	 66	 1	 1578.86	 75.65	 0	 0	 2	 1.003	 0	 1	 1	 1.108	 0.898;
	 67	 1	 559.23	 78.48	 0	 0	 2	 1.003	 0	 1	 1	 1.108	 0.898;
	 68	 1	 191.17	 45.01	 0	 0	 2	 1.003	 0	 1	 1	 1.108	 0.898;
	 69	 1	 0	 0	 0	 0	 2	 1.003	 0	 1	 1	 1.108	 0.898;
	 70	 1	 511.38	-10.66	 0	-190	 2	 1.003	 0	 1	 1	 1.108	 0.898;
	 71	 1	 0	 0	 0	 0	 2	 1.003	 0	 1	 1	 1.108	 0.898;
	 72	 1	 0	 0	 0	 0	 2	 1.003	 0	 1	 1	 1.108	 0.898;
	 73	 1	 0	 0	 0	 0	 2	 1.003	 0	 1	 1	 1.108	 0.898;
	 74	 1	 0	 0	 0	 0	 2	 1.003	 0	 1	 1	 1.108	 0.898;
	 75	 1	 0	 0	 0	 0	 2	 1.003	 0	 1	 1	 1.108	 0.898;
	 76	 1	 0	 0	 0	 0	 2	 1.003	 0	 1	 1	 1.108	 0.898;
];

mpc_regionR3.gen = [
%	bus         Pg          Qg          Qmax        Qmin        Vg          mBase       status      Pmax        Pmin        Pc1         Pc2         Qc1min      Qc1max      Qc2min      Qc2max      ramp_agc    ramp_10     ramp_30     ramp_q      apf         
	 2	 1929.025	 207.49	 697.21	-282.23	 1.003	 3400	 1	 3299.94	 558.11	 0	 0	 0	 0	 0	 0	 0	 0	 0	 0	 3299.9353;
	 4	 3479.425	 361.045	 1405.28	-683.19	 1.003	 5300	 1	 5393.53	 1565.32	 0	 0	 0	 0	 0	 0	 0	 0	 0	 0	 5393.5254;
	 18	 191.725	 48.255	 247.19	-150.68	 1.003	 400	 1	 362.6	 20.85	 0	 0	 0	 0	 0	 0	 0	 0	 0	 0	 362.5961;
	 21	 400.445	 71.525	 311.04	-167.99	 1.003	 650	 1	 673.96	 126.93	 0	 0	 0	 0	 0	 0	 0	 0	 0	 0	 673.957;
	 23	 152.35	 0.69	 100.88	-99.5	 1.003	 220	 1	 233.68	 71.02	 0	 0	 0	 0	 0	 0	 0	 0	 0	 0	 233.6808;
	 42	 737.535	-14.145	 327.94	-356.23	 1.003	 1500	 1	 1359.89	 115.18	 0	 0	 0	 0	 0	 0	 0	 0	 0	 0	 1359.8911;
	 54	 1178.09	-18.965	 307.09	-345.02	 1.003	 2000	 1	 2043.61	 312.57	 0	 0	 0	 0	 0	 0	 0	 0	 0	 0	 2043.6079;
	 56	 3469.755	 594.35	 2149.72	-961.02	 1.003	 6400	 1	 6145.22	 794.29	 0	 0	 0	 0	 0	 0	 0	 0	 0	 0	 6145.2231;
	 60	 1866.725	 262.135	 856.6	-332.33	 1.003	 3400	 1	 3135.12	 598.33	 0	 0	 0	 0	 0	 0	 0	 0	 0	 0	 3135.1221;
	 64	 2041.235	 252.83	 746.55	-240.89	 1.003	 3400	 1	 3402.54	 679.93	 0	 0	 0	 0	 0	 0	 0	 0	 0	 0	 3402.5374;
	 65	 2590.31	-21.69	 582.17	-625.55	 1.003	 4400	 1	 4251.85	 928.77	 0	 0	 0	 0	 0	 0	 0	 0	 0	 0	 4251.854;
];

mpc_regionR3.branch = [
%	fbus        tbus        r           x           b           rateA       rateB       rateC       ratio       angle       status      angmin      angmax      
	 1	 2	 0	 0.00666	 0	 4813	 4813	 4813	 1.08	 0	 1	-30	 30;
	 1	 7	 0	 0.00634	 0	 5055	 5055	 5055	 0	 0	 1	-30	 30;
	 1	 9	 0	 0.01188	 0	 2698	 2698	 2698	 0	 0	 1	-30	 30;
	 1	 55	 0.0028	 0.0211	 1.0194	 1506	 1506	 1506	 0	 0	 1	-30	 30;
	 8	 3	 0	 0.00634	 0	 5055	 5055	 5055	 0	 0	 1	-30	 30;
	 3	 11	 0	 0.00826	 0	 3880	 3880	 3880	 0	 0	 1	-30	 30;
	 3	 13	 0	 0.01795	 0	 1786	 1786	 1786	 0	 0	 1	-30	 30;
	 5	 4	 6e-05	 0.00495	 0	 6474	 6474	 6474	 1.1061	 0	 1	-30	 30;
	 5	 6	 0.0004	 0.0096	 0.9038	 3336	 3336	 3336	 0	 0	 1	-30	 30;
	 5	 6	 0.0004	 0.0096	 0.9038	 3336	 3336	 3336	 0	 0	 1	-30	 30;
	 5	 52	 0.00259	 0.02967	 2.153	 1077	 1077	 1077	 0	 0	 1	-30	 30;
	 5	 52	 0.00259	 0.02967	 2.153	 1077	 1077	 1077	 0	 0	 1	-30	 30;
	 10	 6	 0	 0.01188	 0	 2698	 2698	 2698	 0	 0	 1	-30	 30;
	 12	 6	 0	 0.00826	 0	 3880	 3880	 3880	 0	 0	 1	-30	 30;
	 7	 8	 0.00077	 0.01804	 1.39842	 1775	 1775	 1775	 0	 0	 1	-30	 30;
	 9	 10	 0.00241	 0.05865	 4.8656	 546	 546	 546	 0	 0	 1	-30	 30;
	 11	 12	 0.00179	 0.04244	 3.3922	 755	 755	 755	 0	 0	 1	-30	 30;
	 13	 14	 0.00207	 0.04959	 3.9516	 646	 646	 646	 0	 0	 1	-30	 30;
	 14	 55	 0	 0.01795	 0	 1786	 1786	 1786	 0	 0	 1	-30	 30;
	 15	 16	 0.00074	 0.01861	 1.40264	 1721	 1721	 1721	 0	 0	 1	-30	 30;
	 15	 32	 0.00082	 0.01668	 1.18802	 1920	 1920	 1920	 0	 0	 1	-30	 30;
	 15	 40	 0	 0.00159	 0.12002	 5755.18	 20157	 20157	 0	 0	 1	-30	 30;
	 15	 40	 0	 0.00159	 0.12002	 5757.14	 20157	 20157	 0	 0	 1	-30	 30;
	 16	 24	 0.00013	 0.00693	 0	 4624	 4624	 4624	 1.05	 0	 1	-30	 30;
	 17	 18	 0.0005	 0.0238	 0	 1347	 1347	 1347	 0	 0	 1	-30	 30;
	 17	 22	 0.00221	 0.03346	 0.07338	 892.46	 956	 956	 0	 0	 1	-30	 30;
	 17	 24	 0.0029	 0.038	 0.0824	 841	 841	 841	 0	 0	 1	-30	 30;
	 17	 35	 0.00309	 0.04677	 0.1008	 684	 684	 684	 0	 0	 1	-30	 30;
	 17	 36	 0.00226	 0.03422	 0.07506	 832.1	 935	 935	 0	 0	 1	-30	 30;
	 31	 19	 0.00047	 0.00723	 0.01624	 754.41	 4424	 4424	 0	 0	 1	-30	 30;
	 19	 34	 0.00035	 0.00536	 0.01204	 822.58	 5967	 5967	 0	 0	 1	-30	 30;
	 20	 21	 0.00058	 0.02535	 0	 1264	 1264	 1264	 1.0491	 0	 1	-30	 30;
	 26	 20	 0.0022	 0.03422	 0.07716	 761.15	 935	 935	 0	 0	 1	-30	 30;
	 26	 20	 0.00238	 0.03669	 0.08284	 872	 872	 872	 0	 0	 1	-30	 30;
	 33	 20	 0.00201	 0.03074	 0.06886	 768.89	 1041	 1041	 0	 0	 1	-30	 30;
	 20	 34	 0.00281	 0.04296	 0.09648	 745	 745	 745	 0	 0	 1	-30	 30;
	 24	 22	 0.00029	 0.00434	 0.0095	 841.15	 7369	 7369	 0	 0	 1	-30	 30;
	 24	 23	 0.00499	 0.11473	 0	 280	 280	 280	 1.0478	 0	 1	-30	 30;
	 25	 24	 0.00026	 0.01386	 0	 2312	 2312	 2312	 1.05	 0	 1	-30	 30;
	 24	 31	 0.00229	 0.01583	 0.0306	 855.66	 2004	 2004	 0	 0	 1	-30	 30;
	 24	 31	 0.00229	 0.01583	 0.0306	 905.33	 2004	 2004	 0	 0	 1	-30	 30;
	 24	 35	 0.00141	 0.00967	 0.0194	 772.89	 3280	 3280	 0	 0	 1	-30	 30;
	 24	 35	 0.00141	 0.00967	 0.0194	 912.29	 3280	 3280	 0	 0	 1	-30	 30;
	 24	 35	 0.00161	 0.00971	 0.01928	 763.48	 3257	 3257	 0	 0	 1	-30	 30;
	 24	 35	 0.00161	 0.00971	 0.01928	 911.69	 3257	 3257	 0	 0	 1	-30	 30;
	 24	 36	 0.00027	 0.00393	 0.00918	 837.06	 8136	 8136	 0	 0	 1	-30	 30;
	 24	 36	 0.00027	 0.00393	 0.00918	 783.45	 8136	 8136	 0	 0	 1	-30	 30;
	 24	 36	 0.00027	 0.00393	 0.00918	 804.85	 8136	 8136	 0	 0	 1	-30	 30;
	 24	 38	 0.00138	 0.01116	 0.0247	 758.56	 2851	 2851	 0	 0	 1	-30	 30;
	 24	 38	 0.00138	 0.01116	 0.0247	 759.88	 2851	 2851	 0	 0	 1	-30	 30;
	 40	 25	 0.00083	 0.01884	 1.66668	 1700	 1700	 1700	 0	 0	 1	-30	 30;
	 26	 33	 0.00037	 0.00366	 0.0083	 880.09	 8713	 8713	 0	 0	 1	-30	 30;
	 26	 34	 0.00055	 0.00586	 0.01246	 835.5	 5446	 5446	 0	 0	 1	-30	 30;
	 28	 27	 0.00059	 0.01491	 0	 2148	 2148	 2148	 1.0017	 0	 1	-30	 30;
	 29	 27	 0.00059	 0.01491	 0	 2148	 2148	 2148	 1.0017	 0	 1	-30	 30;
	 30	 27	 0.0003	 0.0133	 0	 2410	 2410	 2410	 0	 0	 1	-30	 30;
	 30	 27	 0.0003	 0.0134	 0	 2392	 2392	 2392	 0	 0	 1	-30	 30;
	 28	 39	 0.0107	 0.07905	 0.3667	 402	 402	 402	 0	 0	 1	-30	 30;
	 29	 39	 0.0107	 0.07905	 0.3667	 402	 402	 402	 0	 0	 1	-30	 30;
	 33	 30	 0.00073	 0.01025	 0.02558	 765.61	 3119	 3119	 0	 0	 1	-30	 30;
	 33	 30	 0.00073	 0.01025	 0.02558	 898.03	 3119	 3119	 0	 0	 1	-30	 30;
	 32	 31	 0.00013	 0.01386	 0	 2313	 2313	 2313	 1.0106	 0	 1	-30	 30;
	 32	 31	 0.00013	 0.01386	 0	 2313	 2313	 2313	 1.0106	 0	 1	-30	 30;
	 31	 34	 0.00119	 0.01244	 0.02798	 856.67	 2565	 2565	 0	 0	 1	-30	 30;
	 31	 34	 0.00119	 0.01244	 0.02798	 852.17	 2565	 2565	 0	 0	 1	-30	 30;
	 38	 31	 0.00128	 0.00979	 0.0212	 868.54	 3246	 3246	 0	 0	 1	-30	 30;
	 33	 34	 0.0011	 0.01189	 0.02514	 908.69	 2684	 2684	 0	 0	 1	-30	 30;
	 36	 37	 0	 0.00115	 0	 27869	 27869	 27869	 1.0133	 0	 1	-30	 30;
	 53	 37	 0.0014	 0.0264	 0.102	 848.66	 1213	 1213	 0	 0	 1	-30	 30;
	 66	 37	 0.00065	 0.01187	 0.04672	 913.99	 2696	 2696	 0	 0	 1	-30	 30;
	 66	 37	 0.00065	 0.01187	 0.04672	 773.57	 2696	 2696	 0	 0	 1	-30	 30;
	 40	 39	 0.0002	 0.02338	 0	 1371	 1371	 1371	 0.9789	 0	 1	-30	 30;
	 55	 40	 0.00179	 0.02524	 0.53546	 1267	 1267	 1267	 0	 0	 1	-30	 30;
	 55	 40	 0.00179	 0.02524	 0.53546	 1267	 1267	 1267	 0	 0	 1	-30	 30;
	 58	 40	 0.0002	 0.0041	 0.2962	 5830.69	 7808	 7808	 0	 0	 1	-30	 30;
	 41	 42	 0	 0.0098	 0	 3271	 3271	 3271	 1.05	 0	 1	-30	 30;
	 43	 41	 0.00079	 0.01937	 1.3285	 1654	 1654	 1654	 0	 0	 1	-30	 30;
	 41	 45	 0.00087	 0.02087	 1.4571	 1535	 1535	 1535	 0	 0	 1	-30	 30;
	 41	 45	 0.00087	 0.02087	 1.4571	 1535	 1535	 1535	 0	 0	 1	-30	 30;
	 44	 43	 0.00083	 0.01985	 0	 1614	 1614	 1614	 0	 0	 1	-30	 30;
	 50	 43	 0.00093	 0.03644	 1.3895	 880	 880	 880	 0	 0	 1	-30	 30;
	 43	 51	 0.00072	 0.016	 1.0879	 2002	 2002	 2002	 0	 0	 1	-30	 30;
	 44	 45	 0.00153	 0.0147	 0	 2169	 2169	 2169	 0	 0	 1	-30	 30;
	 47	 44	 0.00053	 0.01297	 0	 2469	 2469	 2469	 0	 0	 1	-30	 30;
	 46	 45	 0	 0.0174	 0	 1842	 1842	 1842	 1.119	 0	 1	-30	 30;
	 46	 45	 0	 0.0119	 0	 2694	 2694	 2694	 1.119	 0	 1	-30	 30;
	 49	 45	 2e-05	 0.01331	 0	 2408	 2408	 2408	 0	 0	 1	-30	 30;
	 51	 45	 2e-05	 0.00998	 0	 3212	 3212	 3212	 0	 0	 1	-30	 30;
	 45	 71	 0	 0.00935	 0	 3428	 3428	 3428	 0	 0	 1	-30	 30;
	 45	 73	 0	 0.00944	 0	 3395	 3395	 3395	 0	 0	 1	-30	 30;
	 45	 75	 0	 0.00935	 0	 3428	 3428	 3428	 0	 0	 1	-30	 30;
	 48	 49	 0.00165	 0.05719	 2.4774	 561	 561	 561	 0	 0	 1	-30	 30;
	 52	 68	 0.00042	 0.00905	 0.66794	 3538	 3538	 3538	 0	 0	 1	-30	 30;
	 53	 59	 0.0019	 0.0258	 0.0984	 911.65	 1239	 1239	 0	 0	 1	-30	 30;
	 53	 66	 0.00845	 0.07034	 0.15954	 453	 453	 453	 0	 0	 1	-30	 30;
	 54	 55	 0	 0.01512	 0	 2120	 2120	 2120	 0.996	 0	 1	-30	 30;
	 55	 58	 0.00193	 0.02779	 4.6712	 1151	 1151	 1151	 0	 0	 1	-30	 30;
	 63	 55	 0.00056	 0.01415	 1.0429	 2264	 2264	 2264	 0	 0	 1	-30	 30;
	 56	 57	 0	 0.00365	 0	 8781	 8781	 8781	 0.9787	 0	 1	-30	 30;
	 57	 59	 0.0011	 0.0127	 0.048	 859.21	 2515	 2515	 0	 0	 1	-30	 30;
	 58	 61	 0.00028	 0.00753	 0.51736	 4254	 4254	 4254	 0	 0	 1	-30	 30;
	 58	 61	 0.00035	 0.0075	 0.5536	 4269	 4269	 4269	 0	 0	 1	-30	 30;
	 58	 63	 0.0019	 0.031	 4.1402	 1032	 1032	 1032	 0	 0	 1	-30	 30;
	 58	 67	 0.0006	 0.0128	 0.9462	 2502	 2502	 2502	 0	 0	 1	-30	 30;
	 58	 69	 0.00044	 0.01125	 0.8292	 2847	 2847	 2847	 0	 0	 1	-30	 30;
	 58	 69	 0.00044	 0.01125	 0.8292	 2847	 2847	 2847	 0	 0	 1	-30	 30;
	 62	 59	 0.00138	 0.05399	 0.15252	 594	 594	 594	 0	 0	 1	-30	 30;
	 70	 59	 0.0032	 0.0395	 0.144	 754.67	 809	 809	 0	 0	 1	-30	 30;
	 60	 61	 0	 0.00516	 0	 6211	 6211	 6211	 0.9843	 0	 1	-30	 30;
	 61	 62	 0	 0.005	 0	 6410	 6410	 6410	 0	 0	 1	-30	 30;
	 61	 67	 0.00021	 0.00457	 0.32336	 5370.29	 7006	 7006	 0	 0	 1	-30	 30;
	 63	 64	 0	 0.0098	 0	 3271	 3271	 3271	 1.05	 0	 1	-30	 30;
	 65	 66	 0	 0.01026	 0	 3124	 3124	 3124	 0.9871	 0	 1	-30	 30;
	 66	 70	 0.00285	 0.03649	 0.12656	 876	 876	 876	 0	 0	 1	-30	 30;
	 66	 70	 0.00138	 0.03399	 0.11252	 873.01	 943	 943	 0	 0	 1	-30	 30;
	 67	 68	 0.0004	 0.0093	 0.6856	 3443	 3443	 3443	 0	 0	 1	-30	 30;
	 69	 70	 0	 0.01149	 0	 2790	 2790	 2790	 1.0631	 0	 1	-30	 30;
	 69	 70	 0	 0.01149	 0	 2790	 2790	 2790	 1.0631	 0	 1	-30	 30;
	 69	 70	 0	 0.01149	 0	 2790	 2790	 2790	 1.0631	 0	 1	-30	 30;
	 72	 69	 0	 0.00935	 0	 3428	 3428	 3428	 0	 0	 1	-30	 30;
	 74	 69	 0	 0.00935	 0	 3428	 3428	 3428	 0	 0	 1	-30	 30;
	 76	 69	 0	 0.0084	 0	 3816	 3816	 3816	 0	 0	 1	-30	 30;
	 71	 72	 0.00123	 0.02659	 1.98702	 1204	 1204	 1204	 0	 0	 1	-30	 30;
	 73	 74	 0.00123	 0.02662	 1.9888	 1203	 1203	 1203	 0	 0	 1	-30	 30;
	 75	 76	 0.00112	 0.02517	 1.83586	 1273	 1273	 1273	 0	 0	 1	-30	 30;
];

mpc_regionR3.gencost = [
%	2           startup     shutdown    n           c(n-1)...c0 
	 2	 0	 0	 3	 0	 31.784817	 0;
	 2	 0	 0	 3	 0	 27.844304	 0;
	 2	 0	 0	 3	 0	 49.354886	 0;
	 2	 0	 0	 3	 0	 35.232014	 0;
	 2	 0	 0	 3	 0	 25.383461	 0;
	 2	 0	 0	 3	 0	 8.487093	 0;
	 2	 0	 0	 3	 0	 28.267849	 0;
	 2	 0	 0	 3	 0	 31.546462	 0;
	 2	 0	 0	 3	 0	 22.349251	 0;
	 2	 0	 0	 3	 0	 7.230771	 0;
	 2	 0	 0	 3	 0	 14.174214	 0;
];


% ---------- Interregional Tie-Line Information ----------
% Each row: {From_Region (string), To_Region (string), Branch_Data (1x13 array)}
% Branch_Data: {fbus, tbus, r, x, b, rateA, rateB, rateC, ratio, angle, status, angmin, angmax}

interregional_tielines_total = {
	{'mpc_regionR1', 'mpc_regionR3', [ 14	 3	 0	 0.00612	 0	 5237	 5237	 5237	 0	 0	 1	-30	 30]},
	{'mpc_regionR1', 'mpc_regionR2', [ 18	 69	 0	 0.02667	 0	 1202	 1202	 1202	 0	 0	 1	-30	 30]},
	{'mpc_regionR2', 'mpc_regionR3', [ 50	 48	 1e-05	 0.00755	 0	 4245	 4245	 4245	 0	 0	 1	-30	 30]},
	{'mpc_regionR2', 'mpc_regionR3', [ 50	 50	 1e-05	 0.01098	 0	 2919	 2919	 2919	 0	 0	 1	-30	 30]},
};

